Version 4
SHEET 1 3772 1304
WIRE -8192 -2528 -8976 -2528
WIRE -7952 -2528 -8192 -2528
WIRE -7392 -2528 -7952 -2528
WIRE -7952 -2512 -7952 -2528
WIRE -8048 -2416 -8064 -2416
WIRE -7952 -2416 -7952 -2448
WIRE -7952 -2416 -7984 -2416
WIRE -7888 -2416 -7952 -2416
WIRE -7776 -2416 -7808 -2416
WIRE -7952 -2384 -7952 -2416
WIRE -8784 -2368 -8832 -2368
WIRE -8640 -2368 -8720 -2368
WIRE -8480 -2368 -8528 -2368
WIRE -8336 -2368 -8416 -2368
WIRE -8976 -2320 -8976 -2528
WIRE -8192 -2320 -8192 -2528
WIRE -8832 -2288 -8832 -2368
WIRE -8784 -2288 -8832 -2288
WIRE -8640 -2288 -8640 -2368
WIRE -8640 -2288 -8704 -2288
WIRE -8528 -2288 -8528 -2368
WIRE -8480 -2288 -8528 -2288
WIRE -8336 -2288 -8336 -2368
WIRE -8336 -2288 -8400 -2288
WIRE -8064 -2288 -8064 -2416
WIRE -8048 -2288 -8064 -2288
WIRE -7952 -2288 -7952 -2320
WIRE -7952 -2288 -7968 -2288
WIRE -8832 -2208 -8832 -2288
WIRE -8816 -2208 -8832 -2208
WIRE -8736 -2208 -8752 -2208
WIRE -8720 -2208 -8736 -2208
WIRE -8640 -2208 -8640 -2288
WIRE -8640 -2208 -8656 -2208
WIRE -8528 -2208 -8528 -2288
WIRE -8512 -2208 -8528 -2208
WIRE -8432 -2208 -8448 -2208
WIRE -8416 -2208 -8432 -2208
WIRE -8336 -2208 -8336 -2288
WIRE -8336 -2208 -8352 -2208
WIRE -7952 -2208 -7952 -2288
WIRE -7920 -2208 -7920 -2240
WIRE -8736 -2160 -8736 -2208
WIRE -8432 -2160 -8432 -2208
WIRE -8112 -2128 -8112 -2160
WIRE -8112 -2128 -8144 -2128
WIRE -8064 -2128 -8064 -2288
WIRE -7936 -2128 -7936 -2144
WIRE -7936 -2128 -8064 -2128
WIRE -8144 -2080 -8144 -2128
WIRE -8128 -2080 -8144 -2080
WIRE -7952 -2080 -8048 -2080
WIRE -7952 -2064 -7952 -2080
WIRE -8736 -2048 -8736 -2080
WIRE -8432 -2048 -8432 -2080
WIRE -9200 -1984 -9328 -1984
WIRE -9184 -1984 -9200 -1984
WIRE -9088 -1984 -9104 -1984
WIRE -9072 -1984 -9088 -1984
WIRE -8976 -1984 -8976 -2240
WIRE -8976 -1984 -8992 -1984
WIRE -8832 -1984 -8832 -2208
WIRE -8832 -1984 -8976 -1984
WIRE -8720 -1984 -8832 -1984
WIRE -8640 -1984 -8640 -2208
WIRE -8624 -1984 -8640 -1984
WIRE -8528 -1984 -8528 -2208
WIRE -8528 -1984 -8544 -1984
WIRE -8416 -1984 -8528 -1984
WIRE -8336 -1984 -8336 -2208
WIRE -8304 -1984 -8336 -1984
WIRE -8192 -1984 -8192 -2240
WIRE -8192 -1984 -8224 -1984
WIRE -7952 -1984 -8192 -1984
WIRE -7856 -1984 -7952 -1984
WIRE -7664 -1984 -7792 -1984
WIRE -7520 -1984 -7584 -1984
WIRE -7392 -1984 -7392 -2528
WIRE -7392 -1984 -7520 -1984
WIRE -9328 -1968 -9328 -1984
WIRE -8640 -1968 -8640 -1984
WIRE -8640 -1968 -8656 -1968
WIRE -8336 -1968 -8336 -1984
WIRE -8336 -1968 -8352 -1968
WIRE -8720 -1952 -8768 -1952
WIRE -8416 -1952 -8448 -1952
WIRE -7520 -1952 -7520 -1984
WIRE -7392 -1952 -7392 -1984
WIRE -9088 -1936 -9088 -1984
WIRE -9328 -1872 -9328 -1888
WIRE -7520 -1840 -7520 -1888
WIRE -7392 -1840 -7392 -1872
WIRE -9088 -1824 -9088 -1856
WIRE -9088 -1712 -9088 -1760
WIRE -10320 -1680 -10320 -1760
WIRE -9200 -1680 -9200 -1984
WIRE -8304 -1680 -9200 -1680
WIRE -8192 -1680 -8192 -1984
WIRE -8192 -1680 -8224 -1680
FLAG -9328 -1872 0
FLAG -9088 -1712 com
FLAG -7520 -1840 com
FLAG -7392 -1840 com
FLAG -10320 -1680 com
FLAG -10320 -1760 0
FLAG -8768 -1952 com
FLAG -7776 -2416 com
FLAG -7920 -2240 com
FLAG -8112 -2160 com
FLAG -8736 -2048 com
FLAG -8432 -2048 com
FLAG -8448 -1952 com
SYMBOL voltage -9328 -1984 M0
WINDOW 3 0 131 Top 2
WINDOW 123 0 0 Left 0
WINDOW 39 0 0 Left 0
SYMATTR Value SINE(0 10 1k)
SYMATTR InstName V1
SYMBOL ind -7680 -1968 R270
WINDOW 0 32 56 VTop 2
WINDOW 3 5 56 VBottom 2
SYMATTR InstName L1
SYMATTR Value 6µ8
SYMBOL Res -8992 -2336 R0
SYMATTR InstName R5
SYMATTR Value 33k
SYMBOL Cap -9104 -1824 R0
SYMATTR InstName C2
SYMATTR Value 1n
SYMBOL Res -9088 -2000 R90
WINDOW 0 0 56 VBottom 2
WINDOW 3 32 56 VTop 2
SYMATTR InstName R6
SYMATTR Value 1k2
SYMBOL Cap -8752 -2224 R90
WINDOW 0 0 32 VBottom 2
WINDOW 3 32 32 VTop 2
SYMATTR InstName C3
SYMATTR Value 470p
SYMBOL OpAmps/opamp -8688 -2032 R0
SYMATTR InstName U4
SYMATTR SpiceLine2 GBW=40Meg
SYMBOL Res -8208 -1696 R90
WINDOW 0 0 56 VBottom 2
WINDOW 3 32 56 VTop 2
SYMATTR InstName R19
SYMATTR Value 1k5
SYMBOL Res -7408 -1968 R0
SYMATTR InstName R26
SYMATTR Value 4
SYMBOL Res -8976 -2000 R90
WINDOW 0 0 56 VBottom 2
WINDOW 3 32 56 VTop 2
SYMATTR InstName R27
SYMATTR Value 1k2
SYMBOL Res -9104 -1952 R0
SYMATTR InstName R28
SYMATTR Value 25
SYMBOL TVSdiode -8720 -2384 R90
WINDOW 0 0 64 VRight 2
WINDOW 3 0 0 VLeft 2
SYMATTR InstName D1
SYMATTR Value Dc
SYMBOL Digital/inv -7856 -2048 R0
WINDOW 3 -1 100 Left 2
SYMATTR Value Comp
SYMATTR InstName U1
SYMATTR Prefix X
SYMATTR SpiceModel ""
SYMATTR Value2 Td=80n Vs=72
SYMBOL Res -8688 -2304 R90
WINDOW 0 0 56 VBottom 2
WINDOW 3 32 56 VTop 2
SYMATTR InstName R10
SYMATTR Value 33k
SYMBOL Res -8528 -2000 R90
WINDOW 0 0 56 VBottom 2
WINDOW 3 32 56 VTop 2
SYMATTR InstName R8
SYMATTR Value 1k
SYMBOL Cap -8448 -2224 R90
WINDOW 0 0 32 VBottom 2
WINDOW 3 32 32 VTop 2
SYMATTR InstName C6
SYMATTR Value 470p
SYMBOL OpAmps/opamp -8384 -2032 R0
SYMATTR InstName U3
SYMATTR SpiceLine2 GBW=40Meg
SYMBOL TVSdiode -8416 -2384 R90
WINDOW 0 0 64 VRight 2
WINDOW 3 0 0 VLeft 2
SYMATTR InstName D2
SYMATTR Value Dc
SYMBOL Res -8384 -2304 R90
WINDOW 0 0 56 VBottom 2
WINDOW 3 32 56 VTop 2
SYMATTR InstName R7
SYMATTR Value 33k
SYMBOL Res -8208 -2000 R90
WINDOW 0 0 56 VBottom 2
WINDOW 3 32 56 VTop 2
SYMATTR InstName R3
SYMATTR Value 1k5
SYMBOL Cap -7968 -2512 R0
SYMATTR InstName C1
SYMATTR Value 348p
SYMBOL Res -7792 -2432 R90
WINDOW 0 0 56 VBottom 2
WINDOW 3 32 56 VTop 2
SYMATTR InstName R2
SYMATTR Value 169
SYMBOL Cap -7968 -2384 R0
SYMATTR InstName C4
SYMATTR Value 619p
SYMBOL Cap -7984 -2432 R90
WINDOW 0 0 32 VBottom 2
WINDOW 3 32 32 VTop 2
SYMATTR InstName C5
SYMATTR Value 178p
SYMBOL Res -7952 -2304 R90
WINDOW 0 0 56 VBottom 2
WINDOW 3 32 56 VTop 2
SYMATTR InstName R9
SYMATTR Value 1k87
SYMBOL OpAmps/opamp -8000 -2176 M90
SYMATTR InstName U2
SYMBOL e -8032 -2080 R90
SYMATTR InstName E1
SYMATTR Value -1
SYMBOL Cap -8656 -2224 R90
WINDOW 0 0 32 VBottom 2
WINDOW 3 32 32 VTop 2
SYMATTR InstName C7
SYMATTR Value 470p
SYMBOL Res -8752 -2176 R0
SYMATTR InstName R1
SYMATTR Value 3k3
SYMBOL Cap -8352 -2224 R90
WINDOW 0 0 32 VBottom 2
WINDOW 3 32 32 VTop 2
SYMATTR InstName C8
SYMATTR Value 470p
SYMBOL Res -8448 -2176 R0
SYMATTR InstName R4
SYMATTR Value 3k3
SYMBOL Res -8208 -2336 R0
SYMATTR InstName R12
SYMATTR Value 8k2
SYMBOL Cap -7536 -1952 R0
SYMATTR InstName C9
SYMATTR Value 1µ2
SYMBOL Res -7968 -2080 R0
SYMATTR InstName R11
SYMATTR Value 2k
TEXT -10984 -1496 Left 2 ;.ac dec 3k 1k 1e7
TEXT -10016 -1504 Left 2 !.subckt Comp i x x x x n x x\n.param td=100n Vs=40 Ro=1m\nV1 x 0 0\nA1 i 0 0 0 0 1 0 0 BUF\n+ Vlow=-1 tau=5n tripdt=5n\nV2 1 2 ac=8 ;  for loop gain\nG1 0 3 2 0 {Vs}\nR1 0 3 1\nT1 3 0 4 0 Zo=1 td={td}\nG2 0 n 4 0 {1/Ro}\nR2 0 n {Ro}\n.ends Comp
TEXT -10984 -1528 Left 2 !.tran 5m uic
TEXT -10984 -1464 Left 2 !.opt reltol=20u plotwinsize=0
TEXT -10984 -1656 Left 2 !.param Rs=150 Vc=1.5 Ve=Vc/5\n.model Dc d Ron={Rs}\n+ Vfwd={Vc} Vrev={Vc}\n+ Epsilon={Ve} RevEpsilon={Ve}
TEXT -10632 -1528 Left 2 !.subckt Diff i x x x x n p x\nV1 x 0 0\nE1 n 0 0 i 1e6\nE2 p 0 0 n 1\n.ends Diff
TEXT -10976 -1400 Left 2 ;NOTES:\nThis is an idealized single ended Hypex Ncore design.\nThe high gain diff amp has complimentary outputs.\nLow frequency self-oscillation is suppressed by D1.\nThe power comparator has adjustable delay and level\n and an internal source for ac analysis.\nLoop-gain is measured at the comparator input (fb).
TEXT -10976 -1728 Left 2 !.inc opamp.sub
