Version 4
SHEET 1 2644 2232
WIRE 240 112 240 96
WIRE 384 112 384 96
WIRE 240 208 240 192
WIRE 240 208 208 208
WIRE 384 208 384 192
WIRE 384 208 352 208
WIRE 96 224 96 208
WIRE 240 224 240 208
WIRE 384 224 384 208
WIRE 528 224 528 208
WIRE 240 320 240 304
WIRE 384 320 384 304
WIRE 528 320 528 304
WIRE 96 336 96 304
WIRE 432 976 48 976
WIRE 2160 976 432 976
WIRE 432 1024 432 976
WIRE 160 1040 144 1040
WIRE 256 1040 240 1040
WIRE 48 1072 48 976
WIRE 432 1104 432 1088
WIRE 144 1136 144 1040
WIRE 160 1136 144 1136
WIRE 256 1136 256 1040
WIRE 256 1136 224 1136
WIRE 608 1152 512 1152
WIRE 944 1184 928 1184
WIRE 1120 1184 1104 1184
WIRE 1392 1184 1376 1184
WIRE 1632 1184 1600 1184
WIRE 512 1200 512 1152
WIRE 528 1200 512 1200
WIRE 144 1216 144 1136
WIRE 160 1216 144 1216
WIRE 608 1216 608 1152
WIRE 608 1216 592 1216
WIRE 656 1216 608 1216
WIRE 944 1216 736 1216
WIRE 1392 1216 1104 1216
WIRE 256 1232 256 1136
WIRE 256 1232 224 1232
WIRE 304 1232 256 1232
WIRE 432 1232 432 1184
WIRE 432 1232 384 1232
WIRE 528 1232 432 1232
WIRE -48 1248 -64 1248
WIRE 48 1248 48 1152
WIRE 48 1248 32 1248
WIRE 160 1248 48 1248
WIRE 656 1248 624 1248
WIRE 768 1248 736 1248
WIRE 944 1248 912 1248
WIRE 1136 1248 1104 1248
WIRE 1632 1248 1600 1248
WIRE 1632 1264 1632 1248
WIRE 144 1280 144 1216
WIRE 1392 1280 1376 1280
WIRE 688 1296 688 1280
WIRE 704 1296 704 1280
WIRE 704 1296 688 1296
WIRE 1696 1296 1600 1296
WIRE 704 1328 704 1296
WIRE 144 1376 144 1360
WIRE 1296 1376 1280 1376
WIRE 1392 1376 1376 1376
WIRE 1600 1376 1600 1344
WIRE 1632 1376 1632 1328
WIRE 1632 1376 1600 1376
WIRE 1792 1376 1632 1376
WIRE 1936 1376 1792 1376
WIRE 2080 1376 2016 1376
WIRE 2160 1376 2160 976
WIRE 2160 1376 2080 1376
WIRE 2176 1376 2160 1376
WIRE 2160 1392 2160 1376
WIRE 1632 1408 1600 1408
WIRE 2080 1408 2080 1376
WIRE 1632 1424 1632 1408
WIRE 1696 1456 1600 1456
WIRE 1280 1472 1280 1376
WIRE 1296 1472 1280 1472
WIRE 1392 1472 1376 1472
WIRE 1632 1504 1632 1488
WIRE 1632 1504 1600 1504
WIRE 2080 1504 2080 1472
WIRE 2160 1504 2160 1472
WIRE 1280 1568 1280 1472
WIRE 1632 1568 1632 1504
WIRE 1792 1568 1792 1536
FLAG 96 208 IN
FLAG 240 96 HV+
FLAG 208 208 com
FLAG 240 320 0
FLAG 528 320 0
FLAG 528 208 VSW
FLAG 1632 1568 0
FLAG 1280 1568 0
FLAG 1792 1568 0
FLAG 1792 1216 HV+
FLAG 1376 1280 VSW
FLAG 1632 1408 VSW
FLAG 1376 1184 VSW
FLAG 2080 1504 COM
FLAG 2176 1376 OUT
FLAG -64 1248 IN
FLAG 144 1376 COM
FLAG 2160 1504 COM
FLAG 96 336 com
FLAG 384 96 LV+
FLAG 352 208 com
FLAG 384 320 LV-
FLAG 672 1280 LV-
FLAG 688 1184 LV+
FLAG 704 1328 com
FLAG 624 1248 com
FLAG 768 1248 com
FLAG 912 1248 com
FLAG 1136 1248 0
FLAG 1120 1184 VSW
FLAG 928 1184 LV+
SYMBOL voltage 96 208 R0
WINDOW 123 0 0 Left 0
WINDOW 39 0 0 Left 0
WINDOW 3 24 96 Invisible 2
SYMATTR Value SINE(0 1.43 1k)
SYMATTR InstName V1
SYMBOL voltage 240 96 R0
WINDOW 123 0 0 Left 0
WINDOW 39 0 0 Left 0
WINDOW 3 24 96 Invisible 2
SYMATTR Value 72
SYMATTR InstName V3
SYMBOL voltage 240 208 R0
WINDOW 123 0 0 Left 0
WINDOW 39 0 0 Left 0
WINDOW 3 24 96 Invisible 2
SYMATTR Value 72
SYMATTR InstName V4
SYMBOL voltage 528 208 R0
WINDOW 123 0 0 Left 0
WINDOW 39 0 0 Left 0
SYMATTR InstName V7
SYMATTR Value 5
SYMBOL Res 2144 1376 R0
SYMATTR InstName R5
SYMATTR Value 4
SYMBOL LMG1210 1488 1344 R0
SYMATTR InstName U4
SYMBOL diode 1616 1184 R0
SYMATTR InstName D2
SYMATTR Value MURS120
SYMBOL cap 1616 1264 R0
SYMATTR InstName C3
SYMATTR Value 100n
SYMBOL cap 1616 1424 R0
SYMATTR InstName C4
SYMATTR Value 100n
SYMBOL res 1392 1456 R90
WINDOW 0 0 56 VBottom 2
WINDOW 3 32 56 VTop 2
SYMATTR InstName R6
SYMATTR Value 1Meg
SYMBOL res 1392 1360 R90
WINDOW 0 0 56 VBottom 2
WINDOW 3 32 56 VTop 2
SYMATTR InstName R12
SYMATTR Value 1Meg
SYMBOL cap 2064 1408 R0
SYMATTR InstName C7
SYMATTR Value 1µ
SYMBOL ind 2032 1360 R90
WINDOW 0 5 56 VBottom 2
WINDOW 3 32 56 VTop 2
SYMATTR InstName L1
SYMATTR Value 30µ
SYMBOL Res 48 1232 R90
WINDOW 0 0 56 VBottom 2
WINDOW 3 32 56 VTop 2
SYMATTR InstName R10
SYMATTR Value 2k2
SYMBOL Cap 416 1024 R0
SYMATTR InstName C6
SYMATTR Value 2p2
SYMBOL Res 416 1088 R0
SYMATTR InstName R11
SYMATTR Value 220
SYMBOL OpAmps/opamp 192 1168 R0
SYMATTR InstName U6
SYMBOL Cap 224 1120 R90
WINDOW 0 0 32 VBottom 2
WINDOW 3 32 32 VTop 2
SYMATTR InstName C9
SYMATTR Value 100n
SYMBOL Res 400 1216 R90
WINDOW 0 0 56 VBottom 2
WINDOW 3 32 56 VTop 2
SYMATTR InstName R16
SYMATTR Value 22k
SYMBOL Res 32 1056 R0
SYMATTR InstName R9
SYMATTR Value 100k
SYMBOL Res 256 1024 R90
WINDOW 0 0 56 VBottom 2
WINDOW 3 32 56 VTop 2
SYMATTR InstName R14
SYMATTR Value 1Meg
SYMBOL Res 128 1264 R0
SYMATTR InstName R17
SYMATTR Value 220k
SYMBOL voltage 384 96 R0
WINDOW 123 0 0 Left 0
WINDOW 39 0 0 Left 0
WINDOW 3 24 96 Invisible 2
SYMATTR Value 5
SYMATTR InstName V2
SYMBOL voltage 384 208 R0
WINDOW 123 0 0 Left 0
WINDOW 39 0 0 Left 0
WINDOW 3 24 96 Invisible 2
SYMATTR Value 5
SYMATTR InstName V5
SYMBOL Comparators/LT1711 688 1232 R0
SYMATTR InstName U1
SYMBOL OpAmps/opamp 560 1152 R0
SYMATTR InstName U2
SYMBOL GAN140-650EBE 1776 1296 R0
SYMATTR InstName U3
SYMBOL GAN140-650EBE 1776 1456 R0
SYMATTR InstName U5
SYMBOL ISO7710 1024 1216 R0
SYMATTR InstName U7
TEXT 1264 104 Left 2 !.tran 0 2m 0 1u\n.four 1k 5 v(out)\n.lib LMG1210_TRANS.lib\n.lib PMV240SP.lib\n.inc opamp.sub
TEXT 1264 248 Left 2 !.options plotwinsize=0\n.options numdgt=9\n.options measdgt=9
